     2
Mode #0, f = 4.4i cm^-1.
 N      4.44509      4.99998      4.99998     -0.01154     -0.16447     -0.15842 
 N      5.55491      5.00002      5.00002     -0.01155     -0.10459     -0.08968 
     2
Mode #1, f = 1.5i cm^-1.
 N      4.44509      4.99998      4.99998      0.00043     -0.12034      0.13156 
 N      5.55491      5.00002      5.00002      0.00043     -0.13528      0.14596 
     2
Mode #2, f = 0.1i cm^-1.
 N      4.44509      4.99998      4.99998     -0.18857      0.00846      0.00838 
 N      5.55491      5.00002      5.00002     -0.18856      0.00845      0.00837 
     2
Mode #3, f = 17.7  cm^-1.
 N      4.44509      4.99998      4.99998     -0.00287      0.08060      0.11298 
 N      5.55491      5.00002      5.00002     -0.00285     -0.14872     -0.17321 
     2
Mode #4, f = 26.9  cm^-1.
 N      4.44509      4.99998      4.99998      0.00014     -0.15263      0.12710 
 N      5.55491      5.00002      5.00002      0.00013      0.14130     -0.10944 
     2
Mode #5, f = 2330.1  cm^-1.
 N      4.44509      4.99998      4.99998      0.18893      0.00001      0.00001 
 N      5.55491      5.00002      5.00002     -0.18894     -0.00001     -0.00001 
